***** HSPICE -- J-2014.09-SP2-2 64-BIT (Apr 17 2015) win64 ******
 Input File: test_porject.sp
 lic:
 lic: FLEXlm: v10.9.8
 lic: USER:   Dale                 HOSTNAME: DESKTOP-J7D9945
 lic: HOSTID: "38d54701ef19 38d54701ef1a 005056c00001 005056c00008 047f0e22ff7d" PID:      17280
 lic: Using FLEXlm license file:
 lic: 27000@DESKTOP-J7D9945
 lic: Checkout 1 hspice
 lic: License/Maintenance for hspice will expire on 30-dec-2023/2019.2019
 lic: 1(in_use)/99(total) FLOATING license(s) on SERVER 27000@DESKTOP-J7D9945
 lic:
 init: begin read circuit files,  cpu clock=  4.70E-02
       option search = C:\synopsys\Hspice_J-2014.09-SP2-2\parts\behave\
       option search = C:\synopsys\Hspice_J-2014.09-SP2-2\parts\behave\
       option search = C:\synopsys\Hspice_J-2014.09-SP2-2\parts\AD\
       option search = C:\synopsys\Hspice_J-2014.09-SP2-2\parts\XILINX\
       option search = C:\synopsys\Hspice_J-2014.09-SP2-2\parts\TLINE\
       option search = C:\synopsys\Hspice_J-2014.09-SP2-2\parts\TI\
       option search = C:\synopsys\Hspice_J-2014.09-SP2-2\parts\SIGNET\
       option search = C:\synopsys\Hspice_J-2014.09-SP2-2\parts\PCI\
       option search = C:\synopsys\Hspice_J-2014.09-SP2-2\parts\LIN_TEC
                         H\
       option search = C:\synopsys\Hspice_J-2014.09-SP2-2\parts\PET\
       option search = C:\synopsys\Hspice_J-2014.09-SP2-2\parts\DI0\
       option search = C:\synopsys\Hspice_J-2014.09-SP2-2\parts\COMLINE
                         \
       option search = C:\synopsys\Hspice_J-2014.09-SP2-2\parts\BURR_BR
                         M\
       option search = C:\synopsys\Hspice_J-2014.09-SP2-2\parts\BJT\
       option search = C:\synopsys\Hspice_J-2014.09-SP2-2\parts\behave\
       option search = C:\synopsys\Hspice_J-2014.09-SP2-2\parts\AD\
       option runlvl
       option post
 init: end read circuit files,  cpu clock=  6.30E-02 peak memory=        41 mb
 init: begin check errors,  cpu clock=  6.30E-02
 init: end check errors,  cpu clock=  6.30E-02 peak memory=        43 mb
 init: begin setup matrix, pivot=     0 cpu clock=  6.30E-02
       establish matrix -- done,  cpu clock=  6.30E-02 peak memory=        43 mb
       re-order matrix -- done,  cpu clock=  6.30E-02 peak memory=        43 mb
 init: end setup matrix,  cpu clock=  6.30E-02 peak memory=        43 mb
 dcop: begin dcop,  cpu clock=  6.30E-02
 dcop: end dcop,  cpu clock=  6.30E-02 peak memory=        43 mb  tot_iter=       4
 output: test_porject.tr0
 sweep: tran tran0    begin, stop_t=  6.00E-09 #sweeps= 601 cpu clock=  6.30E-02
 tran: time= 6.0000E-10 tot_iter=     518 conv_iter=     184 cpu clock= 9.40E-02
 tran: time= 1.2000E-09 tot_iter=    1050 conv_iter=     372 cpu clock= 1.10E-01
 tran: time= 1.8000E-09 tot_iter=    1587 conv_iter=     563 cpu clock= 1.25E-01
 tran: time= 2.4000E-09 tot_iter=    2116 conv_iter=     750 cpu clock= 1.41E-01
 tran: time= 3.0000E-09 tot_iter=    2653 conv_iter=     941 cpu clock= 1.57E-01
 tran: time= 3.6000E-09 tot_iter=    3182 conv_iter=    1128 cpu clock= 1.88E-01
 tran: time= 4.2000E-09 tot_iter=    3718 conv_iter=    1319 cpu clock= 2.04E-01
 tran: time= 4.8000E-09 tot_iter=    4246 conv_iter=    1506 cpu clock= 2.19E-01
 tran: time= 5.4000E-09 tot_iter=    4779 conv_iter=    1695 cpu clock= 2.35E-01
 tran: time= 6.0000E-09 tot_iter=    5313 conv_iter=    1885 cpu clock= 2.50E-01
 sweep: tran tran0    end,  cpu clock=  2.50E-01 peak memory=        43 mb
>info:         ***** hspice job concluded
 lic: Release hspice token(s)
