$DATA1 SOURCE='HSPICE' VERSION='J-2014.09-SP2-2 64-BIT'
.TITLE '*** adder32 using static manchester carry adder ***'
 t1               t2               td               power           
 temper           alter#          
  7.500e-011       1.402e-009       1.327e-009       4.017e-004     
   25.0000        1               
